LAMMPS (23 Jun 2022 - Update 1)
### Simulation of contact between two chain

##################### Simulation setup ####################

units micro                              # units
dimension	3                            # dimension
boundary	p p p                        # boundary condition p: periodic
atom_style	sphere                       # atom style
#processors * * 1

####################### Parameter ##################################

variable lat1 equal 3
variable lat2 equal 3 #*(2^(1/2))
variable d1 equal 3                     # Diamter of particle at bottom chain
variable d2 equal 3

variable n2e1 equal 5*v_d1              # Half length of top chain. 1500 is number of particles
variable n1e1 equal v_n2e1*(v_lat1/v_lat2)              # Half length of bottom chain, which is 1.5 time larger than top chain
variable n1e2 equal -v_n1e1
variable n2e2 equal -v_n2e1
#variable x_shift equal -0.25*v_d1

variable den equal 2.2 #grams/cm^3      # micrometer^3=10^-12 cm^3 Density of materials

variable V1 equal (1/6)*PI*(v_d1^3)     # Volume of particle 1
variable V2 equal (1/6)*PI*(v_d1^3)

variable mass1 equal v_den*v_V1  # Mass of particle 1 (picograms)
variable mass2 equal v_den*v_V2

# E GPa to picogram/(micrometer-microsecond^2)= 10^3 Pa= 10^-6 GPa
# Force unit(picogram-micrometer/microsecond^2)=10^-9 N= 1nN
# Spring stiffness (force/distance) 10^-3 N/m

variable E equal 100*(10^6)                    # Young's Modulus using for Hertz/material model
variable PR equal 0.3                          # Poisson's ratio using for Hertz/material model
variable Fn equal -1000                        # Force apply to each particles in top chain
variable dt equal 0.00001                      # Time step units microsecond
variable lgv equal 0.5                         #damping for langevin thermostat for slider

#variable x_shift equal -v_lat1/2

################### Creating the model #################################
lattice sc 3
Lattice spacing in x,y,z = 3 3 3

region box block -15 15 -50 50 -50 50 units box
region substrate block -15 15 -0.1 0.1 0 0.1 units box

create_box 2 box
Created orthogonal box = (-15 -50 -50) to (15 50 50)
create_atoms 1 region substrate
Created 10 atoms

lattice sc 3
Lattice spacing in x,y,z = 3 3 3

region slider1 block -15 15 -0.1 0.1 5.9 6.1 units box

create_atoms 2 region slider1
Created 10 atoms

set type 1 diameter 3
Setting atom values ...
  10 settings made for diameter
set type 1 mass 31.101767270539
Setting atom values ...
  10 settings made for mass
set type 2 diameter 3
Setting atom values ...
  10 settings made for diameter
set type 2 mass 31.101767270539
Setting atom values ...
  10 settings made for mass

group substrate region substrate           # Define gorup
10 atoms in group substrate
group slider1 region slider1
10 atoms in group slider1
#group substrate_slider union substrate slider1

########################## Potential ###################################
pair_style granular
pair_coeff 1 1 hertz/material 0.00000001 0.001 0.3 tangential mindlin NULL 0.1 0.01 damping viscoelastic
pair_coeff 2 2 hertz/material 0.00000001 0.001 0.3 tangential mindlin NULL 0.1 0.01 damping viscoelastic
pair_coeff 1 2 hertz/material 100000000 0.001 0.3 tangential mindlin NULL 0.1 0.01 damping viscoelastic

comm_modify     vel yes
neigh_modify    delay 0 every 1 check yes

### Compute properties ###

compute 1 slider1 com                      # Compute the center of mass of top chain

variable p0 equal "step"

variable slider_z equal "c_1[3]"          # output the position of top chain in z-direction

thermo 100000
thermo_style custom step lx ly lz press pxx pyy pzz ke pe temp c_1[1] c_1[2] c_1[3]

############### Fix ##################

############## Equilibrium the system with apply force ########################

fix force_slider1 slider1 setforce NULL 0 NULL                                # Fix top chain not to move in y-direction

fix f_sub substrate freeze                                                    # Freeze the bottom chain

#fix nve_slider1 slider1 nve                   # Integrate motion for slider1 group
fix rigid_top slider1 rigid/nve group 1 slider1 langevin 0 0 0.5 6987532
  1 rigid bodies with 10 atoms

fix add slider1 addforce 0 0 -1000 every 1

timestep 1e-05

dump 		D1 all custom 100000 Equi_0_*.dump id type diameter mass xu yu zu fx fy fz
dump_modify D1 format 5 %.18g
#dump_modify D1 format 6 %.18g
dump_modify D1 format 7 %.18g

run 3000000
Generated 0 of 1 mixed pair_coeff terms from geometric mixing rule
  update every 1 steps, delay 0 steps, check yes
Step           Lx             Ly             Lz           Press           Pxx            Pyy            Pzz           KinEng         PotEng          Temp          c_1[1]         c_1[2]         c_1[3]
0   30             100            100            0              0              0              0              0              0              0             -1.5            0              6
Averages over the last 16 of 31 rows, steps 1500000 to 3000000:
Lx Ly Lz Press Pxx Pyy Pzz KinEng PotEng Temp c_1[1] c_1[2] c_1[3]
30 100 100 0.0333258 -3.47492e-27 0 0.0999774 1.80759e-09 0 0.0872818 -1.5 0 2.99937
Loop time of 53.2937 on 4 procs for 3000000 steps with 20 atoms

undump D1
